Version 4
SHEET 1 1000 680
WIRE 160 192 128 192
WIRE 320 192 224 192
WIRE 352 192 320 192
WIRE 448 192 416 192
WIRE 480 192 448 192
WIRE 592 192 544 192
WIRE -144 240 -144 192
WIRE 320 272 320 192
WIRE 448 336 448 192
WIRE 448 336 320 336
WIRE -144 368 -144 320
WIRE 320 432 320 400
FLAG -144 192 Vin
IOPIN -144 192 Out
FLAG 128 192 Vin
IOPIN 128 192 In
FLAG -144 368 0
FLAG 320 432 0
FLAG 592 192 Vout
IOPIN 592 192 Out
SYMBOL signal -144 224 R0
SYMATTR InstName V1
SYMATTR Value SINE(0 92 440)
SYMBOL r 160 192 R0
SYMATTR InstName R22
SYMATTR Value 470k
SYMBOL r 320 272 R90
SYMATTR InstName P1a
SYMATTR Value 0
SYMBOL r 320 336 R90
SYMATTR InstName P1b
SYMATTR Value 250k
SYMBOL cap 416 176 R90
WINDOW 0 0 32 VBottom 2
WINDOW 3 32 32 VTop 2
SYMATTR InstName C1
SYMATTR Value 500p
SYMBOL cap 544 176 R90
WINDOW 0 0 32 VBottom 2
WINDOW 3 32 32 VTop 2
SYMATTR InstName C2
SYMATTR Value 22n
TEXT 568 312 Left 2 !.tran 0 1010m 1000m
