Version 4
SHEET 1 2708 680
WIRE 992 64 704 64
WIRE 848 112 832 112
WIRE 928 112 912 112
WIRE 1088 112 1072 112
WIRE 1168 112 1152 112
WIRE 832 208 832 112
WIRE 832 208 800 208
WIRE 848 208 832 208
WIRE 928 208 928 112
WIRE 928 208 912 208
WIRE 992 208 992 64
WIRE 992 208 928 208
WIRE 1072 208 1072 112
WIRE 1072 208 992 208
WIRE 1088 208 1072 208
WIRE 1168 208 1168 112
WIRE 1168 208 1152 208
WIRE 704 256 704 64
WIRE 800 288 800 208
WIRE 800 288 768 288
WIRE 1168 288 1168 208
WIRE 1264 288 1168 288
WIRE 1328 288 1264 288
WIRE 1264 336 1264 288
WIRE 768 320 768 288
WIRE 800 368 800 288
WIRE 832 368 800 368
WIRE 848 368 832 368
WIRE 928 368 912 368
WIRE 992 368 928 368
WIRE 1072 368 992 368
WIRE 1088 368 1072 368
WIRE 1168 368 1168 288
WIRE 1168 368 1152 368
WIRE 1264 432 1264 400
WIRE 832 464 832 368
WIRE 848 464 832 464
WIRE 928 464 928 368
WIRE 928 464 912 464
WIRE 1072 464 1072 368
WIRE 1088 464 1072 464
WIRE 1168 464 1168 368
WIRE 1168 464 1152 464
WIRE 704 512 704 336
WIRE 992 512 992 368
WIRE 992 512 704 512
FLAG 768 320 0
FLAG 1328 288 B1
IOPIN 1328 288 Out
FLAG 1264 432 0
SYMBOL diode 848 224 R270
WINDOW 0 32 32 VTop 2
WINDOW 3 0 32 VBottom 2
SYMATTR InstName D1
SYMATTR Value 1n4007
SYMBOL signal 704 240 R0
WINDOW 3 -219 58 Left 2
SYMATTR Value SINE(0 283 50)
SYMATTR InstName V1
SYMBOL diode 1088 224 R270
WINDOW 0 32 32 VTop 2
WINDOW 3 0 32 VBottom 2
SYMATTR InstName D2
SYMATTR Value 1n4007
SYMBOL diode 848 384 R270
WINDOW 0 32 32 VTop 2
WINDOW 3 0 32 VBottom 2
SYMATTR InstName D3
SYMATTR Value 1n4007
SYMBOL diode 1088 384 R270
WINDOW 0 32 32 VTop 2
WINDOW 3 0 32 VBottom 2
SYMATTR InstName D4
SYMATTR Value 1n4007
SYMBOL r 1264 336 R90
SYMATTR InstName R1
SYMATTR Value 100
SYMBOL cap 1152 448 R90
WINDOW 0 0 32 VBottom 2
WINDOW 3 23 2 VTop 2
SYMATTR InstName Cd4
SYMATTR Value 22n
SYMBOL cap 1152 96 R90
WINDOW 0 63 30 VBottom 2
WINDOW 3 -12 0 VTop 2
SYMATTR InstName Cd2
SYMATTR Value 22n
SYMBOL cap 912 448 R90
WINDOW 0 0 32 VBottom 2
WINDOW 3 22 2 VTop 2
SYMATTR InstName Cd3
SYMATTR Value 22n
SYMBOL cap 912 96 R90
WINDOW 0 62 33 VBottom 2
WINDOW 3 -14 0 VTop 2
SYMATTR InstName Cd1
SYMATTR Value 22n
TEXT 1432 96 Left 2 !.lib 1n4007.lib\n.tran 100m
