Version 4
SHEET 1 1076 680
WIRE 384 144 288 144
WIRE 400 176 368 176
WIRE 400 192 400 176
WIRE 208 208 64 208
WIRE 368 224 368 176
WIRE 368 224 288 224
WIRE 64 240 64 208
WIRE 384 240 288 240
WIRE 384 320 288 320
WIRE 64 336 64 320
WIRE 208 336 208 288
WIRE 208 336 64 336
FLAG 384 144 B+
IOPIN 384 144 Out
FLAG 384 240 HW+
IOPIN 384 240 Out
FLAG 400 192 0
FLAG 384 320 HW-
IOPIN 384 320 Out
SYMBOL ind2 192 192 R0
WINDOW 0 -22 40 Left 2
WINDOW 3 -44 63 Left 2
SYMATTR InstName L1
SYMATTR Value 529
SYMBOL signal 64 224 R0
WINDOW 3 -217 56 Left 2
SYMATTR InstName AC
SYMATTR Value SINE(0 230 50)
SYMATTR SpiceLine Rser=100
SYMBOL ind2 304 128 M0
WINDOW 0 -35 41 Left 2
WINDOW 3 -48 63 Left 2
SYMATTR InstName L2
SYMATTR Value 400
SYMBOL ind2 304 224 M0
WINDOW 0 -28 46 Left 2
WINDOW 3 -83 69 Left 2
SYMATTR InstName L3
SYMATTR Value 0.3969
TEXT 192 112 Left 2 !K L1 L2 L3 1
TEXT 536 192 Left 2 !.tran 100m
TEXT 192 360 Left 2 ;Pri: 230 VAC\nSec: 200 VAC; 6.3 VAC
LINE Normal 260 144 260 324
LINE Normal 244 144 244 324
