Version 4
SHEET 1 952 680
WIRE 384 48 80 48
WIRE 224 112 192 112
WIRE 448 112 336 112
WIRE 224 144 160 144
WIRE 384 144 384 48
WIRE 384 144 336 144
WIRE 80 176 80 48
WIRE 224 176 80 176
WIRE 464 176 336 176
WIRE 192 208 192 112
WIRE 224 208 192 208
WIRE 416 208 336 208
WIRE 192 240 192 208
WIRE 416 240 416 208
FLAG -240 352 0
FLAG -240 272 vdd
IOPIN -240 272 Out
FLAG 464 176 vdd
IOPIN 464 176 In
FLAG 416 240 0
FLAG -128 352 0
FLAG -128 272 in
IOPIN -128 272 Out
FLAG 160 144 in
IOPIN 160 144 In
FLAG 192 240 0
FLAG 448 112 out
IOPIN 448 112 Out
SYMBOL CD4013B 272 160 R0
SYMATTR InstName U1
SYMBOL Voltage -240 256 R0
SYMATTR InstName V1
SYMATTR Value {vdd}
SYMBOL Voltage -128 256 R0
SYMATTR InstName V2
SYMATTR Value PULSE(0 5 0 0.1ms 0.1ms 20ms 40ms)
TEXT -240 120 Left 2 !.param vdd=9\n.param speed=1.0\n.param tripdt=5e-9
TEXT -256 80 Left 2 !.tran 0 400ms 200ms
