Version 4
SHEET 1 1352 680
WIRE 304 208 16 208
WIRE 16 272 16 208
WIRE 304 288 304 208
WIRE 256 352 176 352
WIRE 176 368 176 352
FLAG 176 448 0
FLAG 16 352 0
FLAG 304 384 0
SYMBOL njf 256 288 R0
SYMATTR InstName Q1
SYMATTR Value 2SK30AY
SYMBOL Voltage 16 256 R0
SYMATTR InstName V1
SYMBOL Voltage 176 352 R0
SYMATTR InstName V2
TEXT -328 640 Left 2 !.model 2SK30AY NJF(Vto=-1.4 Beta=1.1m Lambda=1m Is=10f Isr=100f Vk=100 Alpha=10u Rd=30 Rs=30 CGD=9p CGS=9p Pb=0.3 M=0.38 mfg=TOSHIBA)
TEXT 464 144 Left 2 !.dc v1 0 5 v2 0 -1.5 0.25
