.MODEL AC127 NPN(IS=5u ISC=5u ISE=600n IKF=300m ITF=300m NC=2 NE=2 BF=160 BR=5 RB=100 RC=1.5 vaf=50 var=50 CJC=200p CJE=60p TR=3u TF=600n FC=0.5 eg=0.72 VJC=0.4 VJE=0.4 VTF=4 MJC=0.333 MJE=0.333 XTB=1.5 XTF=6 XTI=3 Vceo=12 Icrating=300m MFG=GERMANIUM-TYPE)
