.MODEL AC128 PNP(IS=5u ISC=1u ISE=200n IKF=3 ITF=1 NC=2 NE=1.5 BF=90 BR=5 RB=7 RC=0.2 RE=0.1 vaf=40 var=40 CJC=250p CJE=80p TR=5u TF=1u FC=0.5 eg=0.72 VJC=0.4 VJE=0.4 VTF=4 MJC=0.333 MJE=0.333 XTB=1.5 XTF=6 XTI=3 Vceo=16 Icrating=1 MFG=GERMANIUM-TYPE)
