Version 4
SHEET 1 880 680
WIRE 592 80 464 80
WIRE 768 80 592 80
WIRE 592 160 592 80
WIRE 464 224 464 80
WIRE -272 240 -272 224
WIRE 592 240 592 224
WIRE 624 240 592 240
WIRE 736 240 688 240
WIRE 592 256 592 240
WIRE 96 304 -80 304
WIRE 128 304 96 304
WIRE 320 304 304 304
WIRE 464 304 464 288
WIRE 464 304 384 304
WIRE 528 304 464 304
WIRE 464 320 464 304
WIRE 96 336 96 304
WIRE -272 352 -272 320
WIRE 592 368 592 352
WIRE -80 384 -80 304
WIRE 96 416 96 400
WIRE 464 464 464 384
WIRE 592 464 592 432
WIRE 592 464 464 464
WIRE -80 496 -80 464
WIRE 592 496 592 464
FLAG -80 496 0
FLAG -272 352 0
FLAG -272 224 Vcc
IOPIN -272 224 Out
FLAG 128 304 Vin
IOPIN 128 304 Out
FLAG 304 304 Vin
IOPIN 304 304 In
FLAG 736 240 Vout
IOPIN 736 240 Out
FLAG 768 80 Vcc
IOPIN 768 80 In
FLAG 592 496 0
FLAG 752 432 0
FLAG 752 368 Vout
IOPIN 752 368 In
FLAG 96 416 0
SYMBOL npn 528 256 R0
SYMATTR InstName Q1
SYMATTR Value BC549C
SYMBOL signal -80 368 R0
SYMATTR InstName V1
SYMATTR Value SINE(0 100m 440)
SYMBOL r 48 240 R0
WINDOW 0 53 27 Right 2
WINDOW 3 40 -40 Right 2
SYMATTR InstName Rsig
SYMATTR Value 50
SYMBOL voltage -272 224 R0
SYMATTR InstName V2
SYMATTR Value 12
SYMBOL r 592 160 R90
SYMATTR InstName Rc
SYMATTR Value 273
SYMBOL cap 384 288 R90
WINDOW 0 0 32 VBottom 2
WINDOW 3 32 32 VTop 2
SYMATTR InstName C1
SYMATTR Value 4700µ
SYMBOL r 464 224 R90
SYMATTR InstName Rb1
SYMATTR Value 20k
SYMBOL r 464 320 R90
SYMATTR InstName Rb2
SYMATTR Value 3k6
SYMBOL r 592 368 R90
SYMATTR InstName Re
SYMATTR Value 27
SYMBOL r 752 368 R90
SYMATTR InstName Rload
SYMATTR Value 50k
SYMBOL cap 688 224 R90
WINDOW 0 0 32 VBottom 2
WINDOW 3 32 32 VTop 2
SYMATTR InstName C2
SYMATTR Value 4700µ
SYMBOL r 224 352 R90
SYMATTR InstName Rpd
SYMATTR Value 1Meg
TEXT -120 104 Left 2 !.tran 0 60m 50m
TEXT -120 160 Left 2 !.lib BC549C.sub
