Version 4
SHEET 1 880 680
FLAG 512 368 0
FLAG 512 288 power
IOPIN 512 288 In
FLAG 64 320 0
FLAG 64 240 power
IOPIN 64 240 Out
SYMBOL Res 496 272 R0
SYMATTR InstName R1
SYMATTR Value 220
SYMBOL Voltage 64 224 R0
SYMATTR InstName V1
SYMATTR Value 5
TEXT 224 160 Left 2 !.tran 2
TEXT 192 376 Left 2 !.meas I find I(R1) when time=1
