Version 4
SHEET 1 1184 680
WIRE 464 112 384 112
WIRE 640 112 560 112
WIRE 720 112 640 112
WIRE 640 160 640 112
WIRE 864 240 864 208
WIRE 512 272 512 256
WIRE 512 272 368 272
WIRE 368 288 368 272
WIRE 512 288 512 272
WIRE 640 336 640 240
WIRE 640 336 576 336
WIRE 864 352 864 320
WIRE 368 400 368 368
WIRE 512 448 512 384
FLAG 512 448 0
FLAG 384 112 power
IOPIN 384 112 In
FLAG 720 112 signal
IOPIN 720 112 Out
FLAG 864 352 0
FLAG 864 208 signal
IOPIN 864 208 In
FLAG -16 240 0
FLAG -16 160 power
IOPIN -16 160 Out
FLAG 80 240 0
FLAG 80 160 control
IOPIN 80 160 Out
FLAG 320 352 control
IOPIN 320 352 In
FLAG 320 304 0
FLAG 640 336 Q2-b
FLAG 368 400 0
SYMBOL pnp 560 176 M270
WINDOW 0 33 10 VLeft 2
WINDOW 3 82 85 VLeft 2
SYMATTR InstName Q1
SYMATTR Value BC557C
SYMBOL npn 576 288 M0
SYMATTR InstName Q2
SYMATTR Value BC547C
SYMBOL Res 624 144 R0
SYMATTR InstName Rlatch
SYMATTR Value 10k
SYMBOL Res 848 224 R0
SYMATTR InstName Rload
SYMATTR Value 220
SYMBOL Voltage -16 144 R0
SYMATTR InstName V1
SYMATTR Value 5
SYMBOL Voltage 80 144 R0
SYMATTR InstName V2
SYMATTR Value PULSE(0 5 1 1m 1m 1m)
SYMBOL sw 368 272 R0
SYMATTR InstName S1
SYMATTR SpiceModel NOSW
SYMBOL Res 496 160 R0
SYMATTR InstName Rb
SYMATTR Value 1k
TEXT -104 440 Left 2 !.model NOSW SW(Ron=1, Roff=1000Meg, Vt=2, Vh=0)
TEXT -96 336 Left 2 !.tran 2
TEXT 592 408 Left 2 !.ic V(Q2-b)=0
