Version 4
SHEET 1 1184 680
WIRE 400 112 384 112
WIRE 496 112 400 112
WIRE 640 112 592 112
WIRE 704 112 640 112
WIRE 720 112 704 112
WIRE 640 160 640 112
WIRE 400 176 400 112
WIRE 416 176 400 176
WIRE 512 176 512 160
WIRE 512 176 496 176
WIRE 864 240 864 208
WIRE 704 256 704 112
WIRE 512 272 512 256
WIRE 512 272 368 272
WIRE 368 288 368 272
WIRE 512 288 512 272
WIRE 640 336 640 240
WIRE 640 336 576 336
WIRE 864 352 864 320
WIRE 368 400 368 368
WIRE 704 400 704 336
WIRE 704 400 368 400
WIRE 368 416 368 400
WIRE 512 448 512 384
WIRE 368 496 368 480
FLAG 512 448 0
FLAG 384 112 power
IOPIN 384 112 In
FLAG 720 112 signal
IOPIN 720 112 Out
FLAG 864 352 0
FLAG 864 208 signal
IOPIN 864 208 In
FLAG -16 240 0
FLAG -16 160 power
IOPIN -16 160 Out
FLAG 80 240 0
FLAG 80 160 control
IOPIN 80 160 Out
FLAG 320 352 control
IOPIN 320 352 In
FLAG 320 304 0
FLAG 640 336 Q2-b
FLAG 368 496 0
FLAG 368 400 Csw
SYMBOL npn 576 288 M0
SYMATTR InstName Q2
SYMATTR Value BC547C
SYMBOL Res 624 144 R0
SYMATTR InstName Rlatch
SYMATTR Value 10k
SYMBOL Res 848 224 R0
SYMATTR InstName Rload
SYMATTR Value 220
SYMBOL Voltage -16 144 R0
SYMATTR InstName V1
SYMATTR Value 5
SYMBOL Voltage 80 144 R0
SYMATTR InstName V2
SYMATTR Value PULSE(0 5 0.5 1m 1m 500m 1)
SYMBOL sw 368 272 R0
SYMATTR InstName S1
SYMATTR SpiceModel NOSW
SYMBOL Res 496 160 R0
SYMATTR InstName Rb
SYMATTR Value 1k
SYMBOL pmos 592 160 M270
WINDOW 0 32 13 VLeft 2
WINDOW 3 68 79 VLeft 2
SYMATTR InstName M1
SYMATTR Value IRFP9240
SYMBOL Res 512 160 R90
WINDOW 0 0 56 VBottom 2
WINDOW 3 32 56 VTop 2
SYMATTR InstName Rpu
SYMATTR Value 1Meg
SYMBOL Cap 352 416 R0
SYMATTR InstName Csw
SYMATTR Value 470n
SYMBOL Res 688 240 R0
SYMATTR InstName Rsw
SYMATTR Value 500k
TEXT 136 48 Left 2 !.model NOSW SW(Ron=1, Roff=1000Meg, Vt=2, Vh=0)
TEXT 40 328 Left 2 !.tran 4
TEXT 600 432 Left 2 !.ic V(Q2-b)=0
