Version 4
SHEET 1 1316 1008
WIRE -512 96 -864 96
WIRE 992 96 608 96
WIRE -864 176 -864 160
WIRE -816 176 -864 176
WIRE 608 176 608 160
WIRE 656 176 608 176
WIRE -864 192 -864 176
WIRE 608 192 608 176
WIRE 992 192 992 96
WIRE 992 192 944 192
WIRE 1312 192 992 192
WIRE -512 208 -512 96
WIRE -512 208 -560 208
WIRE -192 208 -512 208
WIRE -864 272 -864 256
WIRE 608 272 608 256
WIRE 1024 272 1008 272
WIRE 1312 272 1312 192
WIRE 1312 272 1248 272
WIRE -480 288 -496 288
WIRE -192 288 -192 208
WIRE -192 288 -256 288
WIRE 1008 288 1008 272
WIRE -496 304 -496 288
WIRE 752 336 608 336
WIRE 832 336 752 336
WIRE 960 336 912 336
WIRE 1024 336 960 336
WIRE -816 352 -896 352
WIRE -752 352 -816 352
WIRE -672 352 -752 352
WIRE -544 352 -592 352
WIRE -480 352 -544 352
WIRE 752 368 752 336
WIRE -752 384 -752 352
WIRE 608 384 608 336
WIRE -896 400 -896 352
WIRE 1024 400 896 400
WIRE 1312 400 1248 400
WIRE -480 416 -608 416
WIRE -192 416 -256 416
WIRE 992 448 992 192
WIRE 1024 448 992 448
WIRE -512 464 -512 208
WIRE -480 464 -512 464
WIRE 752 480 752 448
WIRE 896 480 896 400
WIRE 896 480 752 480
WIRE -752 496 -752 464
WIRE -608 496 -608 416
WIRE -608 496 -752 496
WIRE 608 496 608 448
WIRE -896 512 -896 464
WIRE 752 528 752 480
WIRE 784 528 752 528
WIRE -752 544 -752 496
WIRE -720 544 -752 544
WIRE 960 544 960 336
WIRE 1312 544 1312 400
WIRE 1312 544 960 544
WIRE -544 560 -544 352
WIRE -192 560 -192 416
WIRE -192 560 -544 560
WIRE -816 624 -816 352
WIRE 176 688 160 688
WIRE 208 688 176 688
WIRE -816 704 -816 688
WIRE 176 736 176 688
WIRE 384 736 176 736
WIRE 176 752 176 736
WIRE 384 752 384 736
WIRE 528 784 528 768
WIRE 608 784 528 784
WIRE 736 784 672 784
WIRE 832 784 736 784
WIRE 464 832 384 832
WIRE 384 864 384 832
WIRE 528 912 528 880
FLAG -560 208 Vosc1
IOPIN -560 208 In
FLAG -720 544 MO
IOPIN -720 544 Out
FLAG -896 512 0
FLAG -496 304 0
FLAG 48 368 0
FLAG 48 288 Vosc1
IOPIN 48 288 Out
FLAG 944 192 Vosc2
IOPIN 944 192 In
FLAG 784 528 LO
IOPIN 784 528 Out
FLAG 608 496 0
FLAG 1008 288 0
FLAG 224 368 0
FLAG 224 288 Vosc2
IOPIN 224 288 Out
FLAG 80 688 MO
IOPIN 80 688 In
FLAG 288 688 LO
IOPIN 288 688 In
FLAG 176 880 0
FLAG 368 368 0
FLAG 368 288 Vcc
IOPIN 368 288 Out
FLAG 736 864 0
FLAG 832 784 audio
IOPIN 832 784 Out
FLAG 528 688 Vcc
IOPIN 528 688 In
FLAG 528 992 0
FLAG 384 928 0
FLAG -864 272 0
FLAG -544 352 TRIG1
FLAG -816 176 TRIG1
FLAG 608 272 0
FLAG 656 176 TRIG2
FLAG 960 336 TRIG2
FLAG -816 704 0
SYMBOL NE555 -368 384 R0
SYMATTR InstName U1
SYMBOL Res -576 336 R90
WINDOW 0 0 56 VBottom 2
WINDOW 3 32 56 VTop 2
SYMATTR InstName R1
SYMATTR Value 15k
SYMBOL Cap -912 400 R0
SYMATTR InstName C1
SYMATTR Value 48p
SYMBOL ind -768 368 R0
SYMATTR InstName L1
SYMATTR Value 330µ
SYMATTR SpiceLine Rser=16 Rpar=5meg Cpar=1p
SYMBOL Voltage 48 272 R0
SYMATTR InstName V1
SYMATTR Value 4.5
SYMBOL NE555 1136 368 R0
SYMATTR InstName U2
SYMBOL Res 928 320 R90
WINDOW 0 0 56 VBottom 2
WINDOW 3 32 56 VTop 2
SYMATTR InstName R12
SYMATTR Value 15k
SYMBOL Cap 592 384 R0
SYMATTR InstName C7
SYMATTR Value 47p
SYMBOL ind 736 352 R0
SYMATTR InstName L2
SYMATTR Value 330µ
SYMATTR SpiceLine Rser=16 Rpar=5meg Cpar=1p
SYMBOL Voltage 224 272 R0
SYMATTR InstName V2
SYMATTR Value 4.5
SYMBOL Res 176 672 R90
WINDOW 0 0 56 VBottom 2
WINDOW 3 32 56 VTop 2
SYMATTR InstName R2
SYMATTR Value 2k2
SYMBOL Res 304 672 R90
WINDOW 0 0 56 VBottom 2
WINDOW 3 32 56 VTop 2
SYMATTR InstName R3
SYMATTR Value 2k2
SYMBOL diode 160 752 R0
SYMATTR InstName D1
SYMATTR Value 1N4148
SYMBOL diode 160 816 R0
SYMATTR InstName D2
SYMATTR Value 1N4148
SYMBOL npn 464 784 R0
SYMATTR InstName Q1
SYMBOL Voltage 368 272 R0
SYMATTR InstName V3
SYMATTR Value 9
SYMBOL Res 512 672 R0
SYMATTR InstName R4
SYMATTR Value 1k5
SYMBOL Cap 672 768 R90
WINDOW 0 0 32 VBottom 2
WINDOW 3 32 32 VTop 2
SYMATTR InstName C5
SYMATTR Value 100n
SYMBOL Res 720 768 R0
SYMATTR InstName R5
SYMATTR Value 15k
SYMBOL Res 512 896 R0
SYMATTR InstName R6
SYMATTR Value 180
SYMBOL Res 368 736 R0
SYMATTR InstName R7
SYMATTR Value 15k
SYMBOL Cap 368 864 R0
SYMATTR InstName C2
SYMATTR Value 4n7
SYMBOL schottky -848 256 R180
WINDOW 0 24 64 Left 2
WINDOW 3 24 0 Left 2
SYMATTR InstName D3
SYMATTR Value 1N5819
SYMATTR Description Diode
SYMATTR Type diode
SYMBOL schottky -848 160 R180
WINDOW 0 24 64 Left 2
WINDOW 3 24 0 Left 2
SYMATTR InstName D4
SYMATTR Value 1N5819
SYMATTR Description Diode
SYMATTR Type diode
SYMBOL schottky 624 256 R180
WINDOW 0 24 64 Left 2
WINDOW 3 24 0 Left 2
SYMATTR InstName D5
SYMATTR Value 1N5819
SYMATTR Description Diode
SYMATTR Type diode
SYMBOL schottky 624 160 R180
WINDOW 0 24 64 Left 2
WINDOW 3 24 0 Left 2
SYMATTR InstName D6
SYMATTR Value 1N5819
SYMATTR Description Diode
SYMATTR Type diode
SYMBOL Cap -832 624 R0
SYMATTR InstName C_hand
SYMATTR Value {CC}
TEXT 72 456 Left 2 !.tran 0 10m 5m
TEXT 88 512 Left 2 ;.tran 10u
TEXT -464 776 Left 2 !.step param CC list 1p 2p 3p
