Version 4
SHEET 1 968 680
WIRE 480 -112 272 -112
WIRE 480 0 480 -112
WIRE 160 32 112 32
WIRE 272 32 272 -112
WIRE 272 32 240 32
WIRE 304 32 272 32
WIRE 416 48 368 48
WIRE 304 64 272 64
WIRE 272 80 272 64
WIRE 480 192 480 96
WIRE 480 192 416 192
WIRE 64 256 48 256
WIRE 224 256 64 256
WIRE 320 256 320 240
WIRE 64 288 64 256
WIRE 416 288 416 192
WIRE 448 352 448 320
WIRE 496 352 496 320
WIRE 496 352 448 352
WIRE 624 352 624 320
WIRE 624 352 560 352
WIRE 688 352 688 336
WIRE 816 352 816 336
WIRE 64 384 64 368
WIRE 224 384 192 384
WIRE 320 400 320 384
WIRE 448 400 448 352
WIRE 192 416 192 384
WIRE 688 448 688 432
WIRE 816 448 816 432
WIRE 448 496 448 480
FLAG 192 416 0
FLAG 64 384 0
FLAG 688 448 0
FLAG 688 336 Vpos
IOPIN 688 336 Out
FLAG 816 448 0
FLAG 816 336 Vneg
IOPIN 816 336 Out
FLAG 320 400 Vneg
IOPIN 320 400 In
FLAG 320 240 Vpos
IOPIN 320 240 In
FLAG 448 496 0
FLAG 624 320 Vout
IOPIN 624 320 Out
FLAG 48 256 Vin
IOPIN 48 256 Out
FLAG 112 112 0
FLAG 336 16 Vpos
IOPIN 336 16 In
FLAG 336 80 Vneg
IOPIN 336 80 In
FLAG 272 80 0
FLAG 528 400 Vpos
IOPIN 528 400 In
FLAG 624 432 0
SYMBOL LM13700 288 240 R0
WINDOW 3 -22 81 Left 2
SYMATTR InstName U1
SYMBOL voltage 64 272 R0
WINDOW 3 -130 97 Left 2
SYMATTR Value SINE(0 20m 440)
SYMATTR InstName V1
SYMBOL voltage 688 336 R0
SYMATTR InstName V2
SYMATTR Value 12
SYMBOL voltage 816 448 R180
WINDOW 0 24 96 Left 2
WINDOW 3 24 16 Left 2
SYMATTR InstName V3
SYMATTR Value 12
SYMBOL res 432 384 R0
SYMATTR InstName R1
SYMATTR Value 1k
SYMBOL TL071 336 -16 R0
SYMATTR InstName U2
SYMBOL Voltage 112 16 R0
SYMATTR InstName V4
SYMATTR Value SINE(2.5 2.5 10)
SYMBOL res 256 16 R90
WINDOW 0 0 56 VBottom 2
WINDOW 3 32 56 VTop 2
SYMATTR InstName R2
SYMATTR Value 10k
SYMBOL pnp 416 96 M180
SYMATTR InstName Q1
SYMATTR Value 2N3906
SYMBOL res 544 384 R90
WINDOW 0 0 56 VBottom 2
WINDOW 3 32 56 VTop 2
SYMATTR InstName R3
SYMATTR Value 100k
SYMBOL res 608 336 R0
SYMATTR InstName R4
SYMATTR Value 10Meg
TEXT 776 128 Left 2 !.inc lm13700.sub
TEXT 16 152 Left 2 !.tran 0 200m
TEXT 784 168 Left 2 !.inc tl071.sub
